/*--------------------------------*- C++ -*----------------------------------*\
  =========                 |
  \\      /  F ield         | OpenFOAM: The Open Source CFD Toolbox
   \\    /   O peration     | Website:  https://openfoam.org
    \\  /    A nd           | Version:  7
     \\/     M anipulation  |
\*---------------------------------------------------------------------------*/
FoamFile
{
    version     2.0;
    format      ascii;
    class       dictionary;
    object      blockMeshDict;
}
convertToMeters 1e-3;
//dimension of box
width 7.5; //mm
heigth 15; //mm

maxWidth #calc "1.0*$width";
minWidth #calc "-1.0*$width";
vertices
(
($maxWidth  $minWidth  0)
($maxWidth  $maxWidth  0)
($minWidth  $maxWidth  0)
($minWidth  $minWidth  0)
($maxWidth  $minWidth  $heigth)
($maxWidth  $maxWidth  $heigth)
($minWidth  $maxWidth  $heigth)
($minWidth  $minWidth  $heigth)
);
blocks
(
hex (0 1 2 3 4 5 6 7) (30 30 20) simpleGrading (1 1 5)
);
edges
(
);
boundary
(
	wallImpact
		{
		type wall;
		faces
			(
			(0 1 2 3)
			);
		}
	top
		{
		type patch;
		faces
		(
			(4 5 6 7)
		);
		}
	wallsExt
		{
		type patch;
		faces
		(
			(0 3 7 4)
			(3 2 6 7)
			(1 2 6 5)
			(0 1 5 4)
		);
		}
);
mergePatchPairs
(
);

