/*--------------------------------*- C++ -*----------------------------------*\
  =========                 |
  \\      /  F ield         | OpenFOAM: The Open Source CFD Toolbox
   \\    /   O peration     | Website:  https://openfoam.org
    \\  /    A nd           | Version:  7
     \\/     M anipulation  |
\*---------------------------------------------------------------------------*/
FoamFile
{
    version     2.0;
    format      ascii;
    class       dictionary;
    location    "system";
    object      controlDict;
}
// * * * * * * * * * * * * * * * * * * * * * * * * * * * * * * * * * * * * * //



application     myInterFoam;

startFrom       latestTime;

startTime       0;

stopAt          endTime;

endTime         0.05;

deltaT          1e-03; 

writeControl    adjustableRunTime;

writeInterval   0.5e-03;

purgeWrite      0;

writeFormat     binary;
DynamicKistlerContactAngle
writePrecision  8;

writeCompression off;

timeFormat      general;

timePrecision   6;

runTimeModifiable yes;

adjustTimeStep  yes;

maxCo           0.5;
maxAlphaCo      0.5;

maxDeltaT       1; //1e-04;


libs 
(
"libDynamicKistlerContactAngle.so"
);

/*
// ************************************************************************** //

libs ( "libsimpleSwakFunctionObjects.so"
       "libswakFunctionObjects.so"
       "libOpenFOAM.so"
       "libutilityFunctionObjects.so" 
       "libgroovyBC.so"
       "libsimpleSwakFunctionObjects.so"
       "libswakFunctionObjects.so"
       "libDynamicKistlerContactAngle.so");
// ************************************************************************* //
