/*--------------------------------*- C++ -*----------------------------------*\
  =========                 |
  \\      /  F ield         | OpenFOAM: The Open Source CFD Toolbox
   \\    /   O peration     | Website:  https://openfoam.org
    \\  /    A nd           | Version:  7
     \\/     M anipulation  |
\*---------------------------------------------------------------------------*/
FoamFile
{
    version     2.0;
    format      ascii;
    class       dictionary;
    location    "constant";
    object      dynamicMeshDict;
}
// * * * * * * * * * * * * * * * * * * * * * * * * * * * * * * * * * * * * * //

//dynamicFvMesh   staticFvMesh;   //comment uncomment for static dyn mesh


dynamicFvMesh   dynamicRefineFvMesh;
dynamicRefineFvMeshCoeffs
{
    // How often to refine
    refineInterval  1;//was1
    // Field to be refinement on
    field alpha.water;
    // Refine field inbetween lower..upper
    lowerRefineLevel 0.0001; //0.001;
    upperRefineLevel 0.99999;
    // If value < unrefineLevel unrefine
    unrefineLevel   10; //was10
    // Have slower than 2:1 refinement
    nBufferLayers   1;
    // Refine cells only up to maxRefinement levels
    maxRefinement   3;
    // Stop refinement if maxCells reached
    maxCells        200000;
    // Flux field and corresponding velocity field. Fluxes on changed
    // faces get recalculated by interpolating the velocity. Use 'none'
    // on surfaceScalarFields that do not need to be reinterpolated.
    correctFluxes
    (
    (phi none)
    (nHatf none)
    (rhoPhi none)
    (ghf none)
    (alphaPhi0.water none) //none)
    (alpha0.water none) //none)
    );
    // Write the refinement level as a volScalarField
    dumpLevel       true;
}



