/*--------------------------------*- C++ -*----------------------------------*\
  =========                 |
  \\      /  F ield         | OpenFOAM: The Open Source CFD Toolbox
   \\    /   O peration     | Website:  https://openfoam.org
    \\  /    A nd           | Version:  7
     \\/     M anipulation  |
\*---------------------------------------------------------------------------*/
FoamFile
{
    version     2.0;
    format      ascii;
    class       dictionary;
    location    "constant";
    object      transportProperties;
}
// * * * * * * * * * * * * * * * * * * * * * * * * * * * * * * * * * * * * * //
// * * * * * * * * * * * * * * * * * * * * * * * * * * * * * * * * * * * * * //
phases (water air);

water //water  i.e. drops of water in oil
{
    transportModel  Newtonian;
    nu              nu [ 0 2 -1 0 0 0 0 ] 1e-06;
    rho             rho [ 1 -3 0 0 0 0 0 ] 1000;
}

air //oil
{
    transportModel  Newtonian;
    nu              nu [ 0 2 -1 0 0 0 0 ] 1.48e-05;
    rho             rho [ 1 -3 0 0 0 0 0 ] 1;
}

sigma           sigma [ 1 0 -2 0 0 0 0 ] 0.07;  //surface tension coeffient of water in oil


// ************************************************************************* //

/*
phases
(
     air
     {
         transportModel Newtonian;
         nu [0 2 -1 0 0 0 0] 1.48e-05;
         rho [1 -3 0 0 0 0 0] 1;
     }
    water
     {
         transportModel Newtonian;
         nu [0 2 -1 0 0 0 0] 1e-06;
         rho [1 -3 0 0 0 0 0] 1000;
     }

);

sigmas
(
    (air water) 0.07
);

*/
// ************************************************************************* //
