/*--------------------------------*- C++ -*----------------------------------*\
  =========                 |
  \\      /  F ield         | OpenFOAM: The Open Source CFD Toolbox
   \\    /   O peration     | Website:  https://openfoam.org
    \\  /    A nd           | Version:  7
     \\/     M anipulation  |
\*---------------------------------------------------------------------------*/
FoamFile
{
    version     2.0;
    format      binary;
    class       polyBoundaryMesh;
    location    "constant/polyMesh";
    object      boundary;
}
// * * * * * * * * * * * * * * * * * * * * * * * * * * * * * * * * * * * * * //

3
(
    wallImpact
    {
        type            wall;
        inGroups        List<word> 1(wall);
        nFaces          900;
        startFace       51900;
    }
    top
    {
        type            patch;
        nFaces          900;
        startFace       52800;
    }
    wallsExt
    {
        type            patch;
        nFaces          2400;
        startFace       53700;
    }
)

// ************************************************************************* //
