/*--------------------------------*- C++ -*----------------------------------*\
  =========                 |
  \\      /  F ield         | OpenFOAM: The Open Source CFD Toolbox
   \\    /   O peration     | Website:  https://openfoam.org
    \\  /    A nd           | Version:  7
     \\/     M anipulation  |
\*---------------------------------------------------------------------------*/
FoamFile
{
    version     2.0;
    format      ascii;
    class       featureEdgeMesh;
    location    "constant/triSurface";
    object      cylinder.eMesh;
}
// * * * * * * * * * * * * * * * * * * * * * * * * * * * * * * * * * * * * * //


// points:

120
(
(91.3545 40.6737 100)
(97.8148 20.7912 100)
(97.8148 20.7912 0)
(91.3545 40.6737 0)
(100 0 100)
(100 0 0)
(80.9017 58.7785 100)
(80.9017 58.7785 0)
(-50 86.6025 100)
(-30.9017 95.1057 100)
(-30.9017 95.1057 0)
(-50 86.6025 0)
(30.9017 95.1057 100)
(50 86.6025 100)
(50 86.6025 0)
(30.9017 95.1057 0)
(97.8148 -20.7912 100)
(97.8148 -20.7912 0)
(-66.9131 74.3145 0)
(-80.9017 58.7785 0)
(-80.9017 58.7785 100)
(-66.9131 74.3145 100)
(66.9131 74.3145 100)
(66.9131 74.3145 0)
(10.4528 -99.4522 100)
(-10.4528 -99.4522 100)
(-10.4528 -99.4522 0)
(10.4528 -99.4522 0)
(91.3545 -40.6737 100)
(91.3545 -40.6737 0)
(-30.9017 -95.1057 100)
(-50 -86.6025 100)
(-50 -86.6025 0)
(-30.9017 -95.1057 0)
(-91.3545 -40.6737 0)
(-80.9017 -58.7785 0)
(-80.9017 -58.7785 100)
(-91.3545 -40.6737 100)
(-91.3545 40.6737 0)
(-97.8148 20.7912 0)
(-97.8148 20.7912 100)
(-91.3545 40.6737 100)
(-97.8148 -20.7912 0)
(-97.8148 -20.7912 100)
(-100 0 0)
(-100 0 100)
(-10.4528 99.4522 100)
(10.4528 99.4522 100)
(10.4528 99.4522 0)
(-10.4528 99.4522 0)
(80.9017 -58.7785 100)
(66.9131 -74.3145 100)
(66.9131 -74.3145 0)
(80.9017 -58.7785 0)
(30.9017 -95.1057 100)
(30.9017 -95.1057 0)
(50 -86.6025 100)
(50 -86.6025 0)
(-66.9131 -74.3145 0)
(-66.9131 -74.3145 100)
(-8.09017 -5.87785 -5)
(-6.69131 -7.43145 -5)
(9.78148 2.07912 -5)
(9.13545 4.06737 -5)
(10 0 -5)
(8.09017 5.87785 -5)
(9.13545 -4.06737 -5)
(9.78148 -2.07912 -5)
(5 -8.66025 -5)
(6.69131 -7.43145 -5)
(8.09017 -5.87785 -5)
(-5 -8.66025 -5)
(-3.09017 -9.51056 -5)
(5 8.66025 -5)
(3.09017 9.51056 -5)
(6.69131 7.43145 -5)
(-6.69131 7.43145 -5)
(-8.09017 5.87785 -5)
(1.04528 9.94522 -5)
(-1.04528 9.94522 -5)
(3.09017 -9.51056 -5)
(1.04528 -9.94522 -5)
(-9.13545 4.06737 -5)
(-9.78148 2.07912 -5)
(-1.04528 -9.94522 -5)
(-3.09017 9.51056 -5)
(-5 8.66025 -5)
(-9.13545 -4.06737 -5)
(-9.78148 -2.07912 -5)
(-10 0 -5)
(10 0 0)
(9.78148 2.07912 0)
(9.13545 4.06737 0)
(8.09017 5.87785 0)
(9.78148 -2.07912 0)
(9.13545 -4.06737 0)
(8.09017 -5.87785 0)
(6.69131 -7.43145 0)
(5 -8.66025 0)
(3.09017 -9.51056 0)
(1.04528 -9.94522 0)
(-1.04528 -9.94522 0)
(-3.09017 -9.51056 0)
(-5 -8.66025 0)
(-6.69131 -7.43145 0)
(-8.09017 -5.87785 0)
(6.69131 7.43145 0)
(5 8.66025 0)
(3.09017 9.51056 0)
(1.04528 9.94522 0)
(-1.04528 9.94522 0)
(-3.09017 9.51056 0)
(-5 8.66025 0)
(-6.69131 7.43145 0)
(-8.09017 5.87785 0)
(-9.13545 4.06737 0)
(-9.78148 2.07912 0)
(-10 0 0)
(-9.13545 -4.06737 0)
(-9.78148 -2.07912 0)
)


// edges:

120
(
(0 1)
(2 3)
(1 4)
(5 2)
(6 0)
(3 7)
(8 9)
(10 11)
(12 13)
(14 15)
(4 16)
(17 5)
(18 19)
(20 21)
(21 8)
(11 18)
(22 6)
(7 23)
(24 25)
(26 27)
(16 28)
(29 17)
(30 31)
(32 33)
(34 35)
(36 37)
(38 39)
(40 41)
(25 30)
(33 26)
(42 34)
(37 43)
(39 44)
(45 40)
(46 47)
(48 49)
(50 51)
(52 53)
(54 24)
(27 55)
(28 50)
(53 29)
(47 12)
(15 48)
(51 56)
(57 52)
(13 22)
(23 14)
(9 46)
(49 10)
(44 42)
(43 45)
(57 55)
(32 58)
(58 35)
(38 19)
(54 56)
(59 31)
(36 59)
(20 41)
(60 61)
(62 63)
(64 62)
(63 65)
(66 67)
(68 69)
(69 70)
(67 64)
(71 72)
(73 74)
(65 75)
(61 71)
(76 77)
(78 79)
(80 68)
(81 80)
(82 83)
(66 70)
(73 75)
(78 74)
(81 84)
(84 72)
(85 79)
(86 85)
(76 86)
(60 87)
(82 77)
(87 88)
(88 89)
(89 83)
(90 91)
(91 92)
(92 93)
(94 90)
(95 94)
(96 95)
(97 96)
(98 97)
(99 98)
(100 99)
(101 100)
(102 101)
(103 102)
(104 103)
(105 104)
(93 106)
(106 107)
(107 108)
(108 109)
(109 110)
(110 111)
(111 112)
(112 113)
(113 114)
(114 115)
(115 116)
(116 117)
(118 105)
(119 118)
(117 119)
)

// * * * * * * * * * * * * * * * * * * * * * * * * * * * * * * * * * * * * * //


// ************************************************************************* //
